.papers/SPECTRAL_CLUSTERING_2018/netw_data/data50m.m
% 50 Machine System Data
% This is a 50-machine system with 145 buses from IEEE
% The data has been modified to include full generator and control data
% Some em generator bus data has been modified to stabilize
% unrealistic instabilities

% Bus data format
% bus: number,voltage(pu),angle(degree),p_gen(pu),q_gen(pu),
%      p_load(pu), q_load(pu), conductance(pu), susceptance(pu),
%      bus_type - 1, swing bus
%               - 2, generator bus (PV bus)
%               - 3, load bus (PQ bus)
disp(' 50 generator, 145 bus test system')
bus=[ ...
            1        1.081        -4.32            0            0            0            0            0            0            3
            2       1.0809        -4.39            0            0            0            0            0            0            3
            3       1.1015        -4.02            0            0            0            0            0        -1.26            3
            4       1.1015        -4.02            0            0            0            0            0        -1.26            3
            5       1.1018        -4.02            0            0            0            0            0        -1.26            3
            6       1.0433        -7.84            0            0            0            0            0            0            3
            7       1.0763         3.21            0            0            0            0            0            0            3
            8       1.1137         1.15            0            0            0            0            0            0            3
            9       1.0396        -8.05            0            0            0            0            0            0            3
           10       1.0396        -8.05            0            0            0            0            0            0            3
           11       1.0937       -10.66            0            0            0            0            0            0            3
           12       1.0389        -8.77            0            0            0            0            0            0            3
           13       1.0982       -11.43            0            0            0            0            0            0            3
           14       1.0385        -9.18            0            0            0            0            0            0            3
           15       1.0683        -9.81            0            0            0            0            0        -1.26            3
           16       1.0686        -9.86            0            0            0            0            0        -1.26            3
           17       1.0012        -9.44            0            0            0            0            0         -2.5            3
           18       1.0746       -10.88            0            0            0            0            0        -1.26            3
           19       1.0708       -10.96            0            0            0            0            0        -0.58            3
           20       1.1131       -10.96            0            0            0            0            0            0            3
           21       1.1086       -11.24            0            0            0            0            0            0            3
           22       1.0311        -3.88            0            0            0            0            0            0            3
           23       1.0979        -5.51            0            0            0            0            0            0            3
           24       1.0272          2.3            0            0            0            0            0            0            3
           25        1.038        -9.87            0            0            0            0            0            0            3
           26       1.0894       -11.37            0            0            0            0            0            0            3
           27       1.0389       -13.07            0            0            0            0            0            0            3
           28       1.0762       -15.28            0            0            0            0            0        -1.26            3
           29       1.0746       -15.44            0            0            0            0            0        -1.26            3
           30       1.0731        -5.35            0            0            0            0            0            0            3
           31       1.0905       -11.81            0            0            0            0            0            0            3
           32       1.0937       -10.66            0            0            0            0            0            0            3
           33       1.1392        -4.06            0            0            0            0            0            0            3
           34       1.1387           -4            0            0       0.4505       0.4656            0            0            3
           35        1.139        -4.08            0            0       0.4919       0.2753            0            0            3
           36       1.1385        -3.82            0            0            0            0            0            0            3
           37       1.1235        -6.23            0            0            0            0            0            0            3
           38       1.1306        -5.29            0            0            0            0            0            0            3
           39        1.127        -7.92            0            0            0            0            0            0            3
           40       1.1269        -7.92            0            0            0            0            0            0            3
           41       1.1188       -10.43            0            0            0            0         0.54         -0.1            3
           42       1.1188       -10.45            0            0            0            0        0.548         -0.1            3
           43       1.1189        -10.4            0            0            0            0            0            0            3
           44       1.1189       -10.42            0            0            0            0            0            0            3
           45       1.1173       -11.41            0            0            0            0            0            0            3
           46       1.1173       -11.41            0            0            0            0            0            0            3
           47       1.1275        -6.73            0            0            0            0        0.152       0.0537            3
           48       1.1278        -6.71            0            0            0            0        0.138        0.052            3
           49       1.1279         -6.7            0            0            0            0            0            0            3
           50       1.1276        -6.72            0            0            0            0            0            0            3
           51       1.1124       -10.16            0            0       0.5845       0.2844            0            0            3
           52       1.1118       -11.13            0            0            0            0         0.23       -0.097            3
           53       1.1118       -11.13            0            0            0            0        0.232       -0.097            3
           54       1.1131       -11.79            0            0            0            0        0.188       -0.093            3
           55       1.1131       -11.79            0            0            0            0        0.187       -0.092            3
           56       1.1072        -9.94            0            0            0            0        0.186       -0.075            3
           57       1.1072        -9.94            0            0            0            0        0.188        -0.07            3
           58       1.1067        -9.76            0            0        0.763       -0.108         1.21          1.4            3
           59       1.1165       -10.84            0            0            0            0         5.08       0.0863            3
           60        1.137        -6.37         0.51       0.3292            0            0         2.01         1.65            2
           61       1.1144       -11.89            0            0            0            0            0         1.49            3
           62       1.0566       -14.47            0            0            0            0            0            0            3
           63       1.1109       -13.98            0            0            0            0         8.23         5.25            3
           64        1.098        -9.29            0            0            0            0         1.23        -0.26            3
           65        1.098        -9.29            0            0            0            0         1.24        -0.26            3
           66       1.1129         1.32            0            0        1.022        0.267         2.16        18.97            3
           67         1.09        -5.66        14.86        2.852            0            0        18.21         12.8            2
           68       1.2086       -30.99            0            0            0      -0.0741        0.563        -0.25            3
           69       1.0968       -10.42            0            0            0            0         9.71        -1.44            3
           70       0.9998       -14.17            0            0            0       0.5663         1.03        -0.86            3
           71       1.0275       -14.26            0            0            0       -0.212         1.06        -1.22            3
           72       1.1007       -11.19            0            0            0            0        10.19        0.246            3
           73       1.0975       -11.06            0            0            0            0        12.22         8.41            3
           74       1.0973       -11.46            0            0        0.819        0.437         8.57         5.74            3
           75       1.1179       -15.19            0            0            0            0         3.87         1.99            3
           76       1.0209         5.54            0            0            0            0        -6.67        -1.85            3
           77        0.988         6.72            0            0            0            0            0        -1.25            3
           78        1.074        -5.19            0            0         0.89        0.268            0            0            3
           79        1.052        -9.51        2.502      -0.1595        0.091         0.03         2.38        0.271            2
           80        1.069        -8.21         0.47      -0.1506        0.171         0.05      -0.0008        0.299            2
           81       1.1304       -25.86            0            0        0.822       -0.931          0.7        -0.47            3
           82        0.975       -18.66          0.7       0.1715        0.021        0.011         1.11        -0.28            2
           83       1.0985        -5.38            0            0            0            0         1.05      -0.0042            3
           84       1.1156        -9.44            0            0        0.243        0.082            0            0            3
           85       1.1165       -13.05            0            0        0.274        0.003            0            0            3
           86       1.0567       -14.01            0            0            0            0         2.92        -0.22            3
           87       1.0652        -7.17            0            0            0            0        0.377        -0.47            3
           88       1.1094        -8.35            0            0         0.69        0.209            0            0            3
           89        1.066         3.68         6.73       1.3639        0.006        0.002         6.78        0.711            2
           90         0.95        -7.35         0.22      -0.0387        0.046        0.015        0.295        -0.19            2
           91            1        -9.28         0.64      -0.0154            0            0        0.193        -0.27            2
           92       0.9561       -12.75            0            0            0       0.3102        0.434        -0.43            3
           93            1        -1.92            7       3.7381        1.004        0.732            0            0            2
           94         1.02        -0.74            3       0.1905        0.154        0.076          1.4        -1.41            2
           95         0.92        18.88         1.31       0.1012        0.067        0.022        0.272        -0.58            2
           96            1        -8.98          0.6       0.2111            0            0        0.478        -0.45            2
           97        0.967        -4.34          1.4       0.4563            0            0         1.29        -1.77            2
           98         0.97         5.19         4.26      -0.3273            0            0        0.821        -1.21            2
           99            1          1.1            2      -0.0836       0.1046       0.0523            0            0            2
          100        1.014          0.7          1.7       0.5872            0            0        0.591        -1.01            2
          101        1.039        -6.09        3.109       1.4866        0.178        0.045        0.647        -2.38            2
          102        1.019        -4.76         20.4        4.889        0.376        0.092         4.58        -6.19            2
          103            1         1.51         1.35       0.0496            0            0        0.624        -0.45            2
          104       1.0059        13.68           20            5        0.302        0.076            0            0            2
          105        1.007         -2.8         16.2       3.8834         0.96        1.674        0.242        -9.99            2
          106        1.005        -2.75         10.8       2.0936         0.64         0.16        0.369        -7.19            2
          107       1.0211       -13.57            0            0       -0.175       -0.128        0.288        -0.22            3
          108        1.014       -14.03            8       0.7728            0            0          5.2        -2.44            2
          109        0.915       -18.46         0.52      -0.1555            0            0        0.845        -0.47            2
          110            1        -1.31            7       5.1984        1.004        0.732            0            0            2
          111            1         7.97           20       5.6372        0.604        11.66        0.233        -9.99            2
          112        1.037        -6.26            3       1.4011        0.186        0.046        0.643        -2.36            2
          113        0.978        -4.39            0            0            0            0            0            0            3
          114        0.978        -4.39            0            0            0            0            0            0            3
          115        1.049       -15.61        24.93       1.4272        6.835        1.847        28.56       0.0941            2
          116        1.043       -16.86        27.13       6.3184        7.926        3.155         19.3        -1.95            2
          117         1.03       -15.32        26.27       2.5854        4.853        0.714         24.1        -0.54            2
          118         1.01       -17.79         42.2       6.6038        6.519        3.284        47.88        -9.79            2
          119        1.013       -59.41        89.54       47.485        20.94        37.74        99.99        -9.99            2
          120       1.0331        -51.6            0            0        -4.08        1.751        20.26         8.55            3
          121        1.046        -20.2        29.97      -1.6022        2.377       -0.173         3.06        10.55            2
          122            1        -2.79        10.09       1.7404        0.292         0.07         3.97        -0.61            2
          123       1.0171       -33.12            0            0        -0.84        -0.19         1.18        0.014            3
          124            1        -1.89        30.05       5.6919        0.941        7.803         7.66        -9.99            2
          125       1.0084       -32.59            0            0        -7.12        -3.19        28.31        -0.71            3
          126       1.0524        -73.9            0            0        -3.33         -1.6        16.04         3.47            3
          127        1.007        -36.4            0            0        -5.46        -0.72         3.05        -0.51            3
          128        1.025       -39.71       129.63       26.108        40.75        7.035        52.52        -4.72            2
          129       0.9802       -73.07            0            0        -4.82        -1.22        38.55         3.87            3
          130        1.057       -51.87        59.37        18.35        43.28        9.443         38.3        -0.91            2
          131        1.042       -24.32          283        74.73        218.4         43.2        51.45         -7.8            2
          132        1.042        -7.24        30.95       6.3342        4.919        1.102        12.39        -2.26            2
          133       1.0922        -11.6            0            0        -0.83       -0.363         1.03       -0.059            3
          134        1.044       -10.82       2.0626       7.4021       2.2309        7.402        -1.41        -0.78            2
          135        1.107        29.04        59.82       15.648        42.98        12.64        -9.99         8.35            2
          136        1.083         4.39        5.195        0.005       5.2951       135.52        -9.99         3.75            2
          137        1.064       -72.73       1.2068       2.4508       1.2946        2.608         4.99        -2.19            2
          138       1.1138        12.01            0            0        -3.63        -1.88         4.33        -0.81            3
          139         1.04       -10.56       568.34       0.0065       577.18       139.36        16.09        -9.99            2
          140         1.05       -26.16       231.23       67.105       247.75        66.76        -2.89        -0.77            2
          141        1.053        -9.12       3.7911       0.0052       3.2799       113.61        52.12        -9.99            2
          142        1.155       -10.73       244.49       54.961       177.37        39.34        43.23         22.1            2
          143        1.031       -13.66        52.54       21.586        46.72        17.09         5.86        -9.99            2
          144        0.997        -8.58       113.97       26.869        96.02        22.03        -4.36        -9.99            2
          145        1.052         5.02       141.19       29.872        91.73        15.55        -9.99         4.57            1];


% Line data format
% line: from bus, to bus, resistance(pu), reactance(pu),
%       line charging(pu), tap ratio, phase shift(deg)

line=[ ...
            1            2       3e-005       0.0008       0.0632            0            0
            1            2       3e-005       0.0008       0.0632            0            0
            1            3        0.009       0.1718            0        0.935            0
            1            4        0.009       0.1718            0        0.935            0
            1            5       0.0089       0.1697            0        0.935            0
            1            6      0.00194       0.0209       2.3792            0            0
            1           33       0.0001        0.006            0        0.935            0
            1           93       0.0002       0.0138            0       1.1036            0
            1           93       0.0002       0.0138            0       1.1036            0
            2            6      0.00194       0.0209       2.3792            0            0
            2          113            0       0.0148            0       1.1052            0
            2          114      0.00018       0.0145            0       1.1052            0
            3           33       0.0002       0.0221            0            0            0
            4           33       0.0002       0.0221            0            0            0
            5           33       0.0002       0.0219            0            0            0
            6            7      0.00129       0.0139       1.4652            0            0
            6            9      0.00016       0.0017       0.1752            0            0
            6           10      0.00016       0.0017       0.1752            0            0
            6           12       0.0002       0.0021       0.8776            0            0
            6           12       0.0002       0.0021       0.8776            0            0
            7            8       0.0112       0.1516            0       0.9716            0
            7           66      0.00015       0.0097            0       0.9716            0
            7          104      0.00036        0.019            0       1.1052            0
            7          104      0.00041       0.0174            0       1.1052            0
            8           66       0.0002       0.0299            0            0            0
            8           66       0.0002       0.0221            0            0            0
            9           11       0.0217       0.3062            0       0.9166            0
            9           69       0.0004       0.0188            0       0.9166            0
           10           32        0.027       0.3041            0       0.9166            0
           10           69       0.0004       0.0187            0       0.9166            0
           11           69       0.0002       0.0262            0            0            0
           12           13       0.0223       0.3099            0       0.9166            0
           12           13       0.0237        0.316            0       0.9166            0
           12           13       0.0237        0.316            0       0.9166            0
           12           14      0.00096       0.0091       0.8556            0            0
           12           14      0.00096       0.0091       0.8556            0            0
           12           25      0.00051       0.0055        0.625            0            0
           12           25      0.00051       0.0055        0.625            0            0
           12           72       0.0003       0.0189            0       0.9166            0
           12           72       0.0003        0.019            0       0.9166            0
           12           72       0.0003        0.019            0       0.9166            0
           13           72       0.0002        0.026            0            0            0
           13           72       0.0003       0.0262            0            0            0
           13           72       0.0002        0.026            0            0            0
           14           15       0.0415       0.3996            0       0.9164            0
           14           16         0.01       0.1669            0       0.9164            0
           14           17      0.00339       0.0367       3.4582            0            0
           14           17      0.00352       0.0367       3.4516            0            0
           14           58       0.0002       0.0097            0       0.9164            0
           15           58       0.0002       0.0255            0            0            0
           16           58       0.0002        0.022            0            0            0
           17           18       0.3181        1.315            0       0.8708            0
           17           19            0        0.847            0       0.8634            0
           17           20            0       0.8676            0       0.8634            0
           17           21       0.0095       0.1615            0       0.8708            0
           17           22      0.00228       0.0276       2.6204            0            0
           17           59       0.0001       0.0071            0       0.8708            0
           18           59       0.0002       0.0298            0            0            0
           19           59            0       0.0629            0            0            0
           20           59            0       0.0638            0            0            0
           21           59       0.0002       0.0329            0            0            0
           22           23            0       0.3787            0       0.9322            0
           22           24      0.00173       0.0208       1.9648            0            0
           22           30            0       0.3066            0       0.9532            0
           22           78            0       0.0268            0       0.9532            0
           22           83            0       0.0349            0       0.9322            0
           23           83       0.0004       0.0595            0            0            0
           23           83       0.0003       0.0597            0            0            0
           24           76       0.0002       0.0088            0       0.9898            0
           24           77       0.0023       0.0603            0       0.9898            0
           25           26        0.006       0.1375            0       0.9166            0
           25           27       0.0023       0.0266       3.0508            0            0
           25           27       0.0023       0.0266       3.0508            0            0
           25           31       0.0082       0.1648            0       0.9166            0
           25           73       0.0003       0.0172            0       0.9166            0
           25           74       0.0004       0.0179            0       0.9166            0
           26           73       0.0003       0.0267            0            0            0
           27           28       0.1153       0.7453            0       0.9074            0
           27           29       0.0163       0.2618            0       0.9074            0
           27           75      0.00016         0.01            0       0.9074            0
           28           75       0.0002        0.029            0            0            0
           29           75       0.0002       0.0269            0            0            0
           30           78            0       0.0335            0            0            0
           31           74       0.0003       0.0279            0            0            0
           32           69       0.0002       0.0265            0            0            0
           33           34       6e-005       0.0009       0.0006            0            0
           33           35       6e-005       0.0009       0.0006            0            0
           33           37      0.00996       0.0707       0.1116            0            0
           33           38      0.00995       0.0693        0.111            0            0
           33           39       0.0085       0.0699       0.1006            0            0
           33           40      0.00849       0.0698       0.1004            0            0
           33           49       0.0056       0.0493       0.0778            0            0
           33           50       0.0056       0.0493       0.0778            0            0
           33          110      0.00024       0.0157            0         1.18            0
           33          110      0.00023       0.0156            0         1.18            0
           34           36      0.00025       0.0022       0.0006            0            0
           36           99       0.0008       0.0455            0       1.1291            0
           37           87      0.00093       0.0442            0         1.05            0
           37           88       0.0031       0.1651            0            0            0
           38           88       0.0031       0.1638            0            0            0
           39           43      0.00602       0.0495       0.0712            0            0
           39           84      0.00722       0.2786            0            0            0
           40           44      0.00603       0.0496       0.0714            0            0
           40           84      0.00729       0.2756            0            0            0
           41           42       0.0005       0.1514            0            0            0
           41           43       1e-005       0.0009       0.0006            0            0
           42           44       1e-005       0.0009       0.0006            0            0
           43           46      0.00618       0.0508       0.0732            0            0
           44           45      0.00618       0.0508       0.0732            0            0
           45           61      0.00445       0.0366       0.0526            0            0
           45           85            0         0.26            0            0            0
           46           61      0.00445       0.0366       0.0526            0            0
           46           85            0       0.2592            0            0            0
           47           48         0.01       0.2306            0            0            0
           47           50       1e-005       0.0009       0.0006            0            0
           47           87       0.0831        0.401            0            0            0
           48           49       1e-005       0.0009       0.0006            0            0
           48           87       0.0998        0.436            0            0            0
           49           51      0.00898        0.079       0.1248            0            0
           50           51      0.00898        0.079       0.1248            0            0
           51           52       0.0029       0.0279       0.0466            0            0
           51           53       0.0029       0.0279       0.0466            0            0
           51           56      0.00759       0.0483       0.0712            0            0
           51           57      0.00759       0.0483       0.0712            0            0
           52           53       0.0067       0.3911            0            0            0
           52           54       0.0047       0.0293       0.0462            0            0
           53           55       0.0047       0.0293       0.0462            0            0
           54           55       0.0553       0.9289            0            0            0
           54           61      0.00141       0.0087       0.0138            0            0
           55           61      0.00141       0.0087       0.0138            0            0
           56           57        0.009       0.3895            0            0            0
           56           58       0.0019        0.012       0.0178            0            0
           57           58       0.0019        0.012       0.0178            0            0
           58           59       0.6674       2.2175            0            0            0
           58           72       0.0302       0.2364            0            0            0
           58           87       0.0863       0.3906            0            0            0
           58           98       0.0131       0.1765            0            0            0
           58          100       0.1193        1.269            0            0            0
           58          103       0.8416       5.5383            0            0            0
           59           60       0.1803       5.9659            0            0            0
           59           72       0.8613       3.0485            0            0            0
           59           79       0.0099       0.2644            0            0            0
           59           80       0.2876       2.3898            0            0            0
           59           89       0.3421       9.0571            0            0            0
           59           92        0.007       0.5678            0            0            0
           59           94       0.7041       5.9885            0            0            0
           59           98        0.106       0.5845            0            0            0
           59          100       0.0183       0.2016            0            0            0
           59          103       0.0368       0.3341            0            0            0
           59          107       0.0372       0.8834            0            0            0
           60          135        1.831       9.7964            0            0            0
           60           79       0.0375       1.1068            0            0            0
           60           80       0.0655       2.6441            0            0            0
           60           90       0.0201       1.5135            0            0            0
           60           92        0.264       3.7139            0            0            0
           60           94       0.0012       0.0775            0            0            0
           60           95       0.0855       0.9926            0            0            0
           60          138       0.3639       1.7936            0            0            0
           61           62       0.0362       0.2608            0         1.05            0
           61           62       0.0472       0.5438            0         1.05            0
           61           63      0.00812       0.0782       0.1318            0            0
           61           63      0.00812       0.0782       0.1318            0            0
           61           64      0.00242       0.0318       0.0568            0            0
           61           65      0.00242       0.0318       0.0568            0            0
           61           86      0.00132        0.032            0         1.05            0
           61           86       0.0011        0.037            0         1.05            0
           61           86       0.0011        0.037            0         1.05            0
           62           86       0.0036       0.0501            0            0            0
           62           86       0.0013       0.0838            0            0            0
           63           64       0.0147       0.2825            0            0            0
           63           65       0.0147       0.2813            0            0            0
           63           66       0.0056         0.09            0            0            0
           63           67       0.0321       0.2785            0            0            0
           63           69       0.0107       0.1571            0            0            0
           63          102       0.0106       0.1583            0            0            0
           63          102       0.0106       0.1576            0            0            0
           63          102       0.0107       0.1604            0            0            0
           63          102       0.0104       0.1542            0            0            0
           63          116       0.3897       6.8588            0            0            0
           63          117        0.003        0.056            0            0            0
           63          118       0.0125       0.2425            0            0            0
           63          124       0.1265        2.022            0            0            0
           64           65       0.0013       0.1674            0            0            0
           64           66       0.0039       0.0684            0            0            0
           64           67       0.0233        0.212            0            0            0
           64           69       0.0075       0.1196            0            0            0
           64           97       0.4336       8.2923            0            0            0
           64          124       0.1041       1.5375            0            0            0
           65           66       0.0039       0.0682            0            0            0
           65           67       0.0233       0.2111            0            0            0
           65           69       0.0075       0.1191            0            0            0
           65           97       0.4292       8.2582            0            0            0
           65          124       0.1032       1.5312            0            0            0
           66           67       0.0081       0.0675            0            0            0
           66           68        2.473        2.472            0            0            0
           66           69       0.0028       0.0381            0            0            0
           66           97       0.1119       2.6432            0            0            0
           66          111            0       0.0264            0            0            0
           66          111      0.00057       0.0266            0            0            0
           66          111            0       0.0273            0            0            0
...








% Machine data format
%        1   machine number,
%        2  bus number,
%        3  base mva,
%        4  leakage reactance x_1(pu),
%        5  resistance r_a(pu),
%        6  d-axis sychronous reactance x_d(pu),
%        7  d-axis transient reactance x'_d(pu),
%        8  d-axis subtransient reactance x"_d(pu),
%        9  d-axis open-circuit time constant T'_do(sec),
%       10  d-axis open-circuit subtransient time constant
%                T"_do(sec),
%       11  q-axis sychronous reactance x_q(pu),
%       12  q-axis transient reactance x'_q(pu),
%       13  q-axis subtransient reactance x"_q(pu),
%       14  q-axis open-circuit time constant T'_qo(sec),
%       15  q-axis open circuit subtransient time constant
%                T"_qo(sec),
%       16  inertia constant H(sec),
%       17  damping coefficient d_o(pu),
%       18  dampling coefficient d_1(pu),
%       19  bus number
%       20  saturation factor s(1.0)
%       21  saturation factor s(1.2)
%       22  active power fraction
%       23  reactive power fraction
mac_con = [ ...
1  93  889    0.22  0.00339  1.75 0.427  0.265 8.5 	0.037...
                             1.72 0.65   0.265 1.24	0.074...
                             6.47 6.00   0.0   3   	0.0654  0.5743 0 0;%bru17713
2  104 2352   0.19  0.0033   2.39 0.287  0.215 10. 	0.03...
                             2.31 0.34   0.215 1.5 	0.035...
                             10.14 10.00   0.0  3  	0.21    0.55   0 0;%nan18205
3  105 2551.2 0.21  0.00398  2.18 0.396  0.26  6.615	0.032...
                             2.08 0.60   0.300 1.5  	0.06...
                             4.43 4.00   0.0   3  	    0.13    0.4096 0 0;%pic18252
4  106 1275.6 0.21  0.00398  2.18 0.396  0.26  6.615	0.032...
                             2.08 0.60   0.300 1.5  	0.06...
                             4.43 4.00   0.0   3		0.13    0.4096 0 0;%pic18263
5  110 960    0.22  0.00339  1.82 0.345  0.260 10.0  0.033...
                             1.70 0.550  0.300 0.431 0.0582...
                             6.00 6.00   0.0   3		0.0556 0.3175 0 0;%bru18705
6  111 2352   0.19  0.0033   2.39 0.287  0.215 10. 	0.03...
                             2.31 0.34   0.215 1.5 	0.035...
                             10.14 10.00   0.0  3		0.21    0.55   0 0;%nan18563
7  60  100    0.00  0.000    0.   0.1000  0 0  0 0 0 0 0 0    12.0   12.0  0.0  1  0 0 0 0;%lak187a
8  67  100    0.00  0.000    0.   0.0213  0 0  0 0 0 0 0 0   52.1796 52.18 0.0  1  0 0 0 0;%bec 287a
9  79  100    0.00  0.000    0.   0.1292  0 0  0 0 0 0 0 0    6.65   6.65  0.0  1  0 0 0 0;%mck1032
10 80  100    0.00  0.000    0.   0.6648  0 0  0 0 0 0 0 0    1.2857 1.29  0.0  1  0 0 0 0;%hig1036
11 82  100    0.00  0.000    0.   0.5291  0 0  0 0 0 0 0 0    2.115  2.12  0.0  1  0 0 0 0;%chf1262
12 89  100    0.00  0.000    0.   0.0585  0 0  0 0 0 0 0 0   20.5602 20.56 0.0  1  0 0 0 0;%can1751T
13 90  100    0.00  0.000    0.   1.6     0 0  0 0 0 0 0 0    0.7628 0.76  0.0  1  0 0 0 0;%agu1752T
14 91  100    0.00  0.000    0.   0.3718  0 0  0 0 0 0 0 0    1.6848 1.68  0.0  1  0 0 0 0;%arn1754T
15 94  100    0.00  0.000    0.   0.0839  0 0  0 0 0 0 0 0   17.3424 34.69 0.0  1  0 0 0 0;%cam17761
16 95  100    0.00  0.000    0.   0.1619  0 0  0 0 0 0 0 0    5.4662 5.46  0.0  1  0 0 0 0;%car1777T
17 96  100    0.00  0.000    0.   0.4824  0 0  0 0 0 0 0 0    2.1216 2.12  0.0  1  0 0 0 0;%che17801
18 97  100    0.00  0.000    0.   0.2125  0 0  0 0 0 0 0 0    5.4912 5.49  0.0  1  0 0 0 0;%dec1728T
19 98  100    0.00  0.000    0.   0.0795  0 0  0 0 0 0 0 0   13.96   13.16 0.0  1  0 0 0 0;%des17831
20 99  100    0.00  0.000    0.   0.1146  0 0  0 0 0 0 0 0   17.108  17.1  0.0  1  0 0 0 0;%dou1793T
21 100 100    0.00  0.000    0.   0.1386  0 0  0 0 0 0 0 0    7.56   7.56  0.0  1  0 0 0 0;%hol17961
22 101 100    0.00  0.000    0.   0.0924  0 0  0 0 0 0 0 0   12.2844 12.3  0.0  1  0 0 0 0;%lak18068
23 102 2222   0.16  0.00234  1.81 0.30    0.217 7.8 	0.022...
                             1.76 0.61    0.217 0.90	0.074...
                             3.53 4.00   	 0.0   3	0.1269  0.4104 0 0;%lam18071
24 103 100    0.00  0.000    0.   0.1063  0 0  0 0 0 0 0 0    8.16   8.16  0.0 1   0 0 0 0;%lon1815T
25 108 100    0.00  0.000    0.   0.0248  0 0  0 0 0 0 0 0   30.432  30.4  0.0 1   0 0 0 0;%sau18311
26 109 100    0.00  0.000    0.   0.2029  0 0  0 0 0 0 0 0    2.6622 2.66  0.0 1   0 0 0 0;%stw18435
27 112 100    0.00  0.000    0.   0.0924  0 0  0 0 0 0 0 0   12.2844 12.3  0.0 1   0 0 0 0;%lak18637
28 115 100    0.00  0.000    0.   0.0024  0 0  0 0 0 0 0 0   97.33   97.3  0.0 1   0 0 0 0;%18c2007e
29 116 100    0.00  0.000    0.   0.0022  0 0  0 0 0 0 0 0  105.50  105.5  0.0 1   0 0 0 0;%18h20160
30 117 100    0.00  0.000    0.   0.0017  0 0  0 0 0 0 0 0  102.16  102.2  0.0 1   0 0 0 0%19b2051r
31 118 100    0.00  0.000    0.   0.0014  0 0  0 0 0 0 0 0  162.74  162.5  0.0 1   0 0 0 0;%19m20792
32 119 100    0.00  0.000    0.   0.0002  0 0  0 0 0 0 0 0  348.22  348.2  0.0 1   0 0 0 0;%ak2152
33 121 100    0.00  0.000    0.   0.0017  0 0  0 0 0 0 0 0  116.54  116.5  0.0 1   0 0 0 0;%cha2184g
34 122 100    0.00  0.000    0.   0.0089  0 0  0 0 0 0 0 0  39.24    39.2  0.0 1   0 0 0 0;%dun22033
35 124 100    0.00  0.000    0.   0.0017  0 0  0 0 0 0 0 0  116.86  116.9  0.0 1   0 0 0 0;%hnt2264g
36 128 100    0.00  0.000    0.   0.0001  0 0  0 0 0 0 0 0  503.87  503.9  0.0 1   0 0 0 0;%br.24593
37 130 100    0.00  0.000    0.   0.0010  0 0  0 0 0 0 0 0  230.90  230.9  0.0 1   0 0 0 0;%ber26011
38 131 100    0.00  0.000    0.   0.0001  0 0  0 0 0 0 0 0 1101.72 1101.7  0.0 1   0 0 0 0;%clv2609f
39 132 100    0.00  0.000    0.   0.0016  0 0  0 0 0 0 0 0  120.35  120.4  0.0 1   0 0 0 0;%eri2616
40 134 100    0.00  0.000    0.   0.3e-4  0 0  0 0 0 0 0 0  802.12  802.1  0.0 1   0 0 0 0;%all2651
41 135 100    0.00  0.000    0.   0.0008  0 0  0 0 0 0 0 0  232.63  232.6  0.0 1   0 0 0 0;%bd 26524
42 136 100    0.00  0.000    0.   0.1e-4  0 0  0 0 0 0 0 0 2018.17 5000.2  0.0 1   0 0 0 0;%cal26541
43 137 100    0.00  0.000    0.   0.0004  0 0  0 0 0 0 0 0  469.32  469.3  0.0 1   0 0 0 0;%cap2655
44 139 100    0.00  0.000    0.   0.0001  0 0  0 0 0 0 0 0 2210.20 2210.2  0.0 1   0 0 0 0;%spp2666n
45 140 100    0.00  0.000    0.   0.0003  0 0  0 0 0 0 0 0  889.19  889.2  0.0 1   0 0 0 0;%spp2669n
46 141 100    0.00  0.000    0.   0.0001  0 0  0 0 0 0 0 0 1474.22 1474.2  0.0 1   0 0 0 0;%ver2674n
47 142 100    0.00  0.000    0.   0.0003  0 0  0 0 0 0 0 0  950.80  950.8  0.0 1   0 0 0 0;%01a2679r
48 143 100    0.00  0.000    0.   0.0023  0 0  0 0 0 0 0 0  204.30  204.3  0.0 1   0 0 0 0;%03d2699e
49 144 100    0.00  0.000    0.   0.0004  0 0  0 0 0 0 0 0  443.22  443.2  0.0 1   0 0 0 0;%3br2719
50 145 100    0.00  0.000    0.   0.0018  0 0  0 0 0 0 0 0  518.08  518.1  0.0 1   0 0 0 0;%8b02739
];
% IEEE new standard st1a exciters 
% column 1 type (10) for st1
% column 2 generator number
% column 3 Rc
% column 4 Xc
% column 5 Tr
% column 6 Ka
% column 7 Ta
% column 8 Tb
% column 9 Tc
% column 10 Kf
% column 11 Tf
% column 12 Tb1
% column 13 Tc1
% column 14 Vimx
% column 15 Vimin
% column 16 Vamax
% column 17 Vamin
% column 18 Vrmax
% column 19 Vrmin
% column 20 Kc
exc_con = [...
10      1     0  	0  	    0.02 	185  	 0.0    0  	    0  	    0      0     0     0    999 ...
-999  999  -999 	8.89   -2.00      0.113  0      0    	0    	0      0     0     0      0 ...
   0    0     0 ;
10      2     0  	0  	    0.015 	253  	 0.0    0  	    0  	    0      0     0     0    999 ...
-999  999  -999 	8.86   -7.00      0.077  0      0    	0    	0      0     0     0      0 ...
   0    0     0 ;
10      3     0  	0  	    0.02 	185  	 0.0    0  	    0  	    0      0     0     0    999 ...
-999  999  -999 	8.89   -2.00      0.113  0      0    	0    	0      0     0     0      0 ...
   0    0     0 ;
10      4     0  	0  	    0.02 	185  	 0.0    0  	    0  	    0      0     0     0    999 ...
-999  999  -999 	8.89   -2.00      0.113  0      0    	0    	0      0     0     0      0 ...
   0    0     0 ;
10      5     0  	0  	    0.02 	185  	 0.0    0  	    0  	    0      0     0     0    999 ...
-999  999  -999 	8.89   -2.00      0.133  0      0    	0    	0      0     0     0      0 ...
   0    0     0 ;
10      6     0  	0  	    0.015 	253  	 0.0    0  	    0  	    0      0     0     0    999 ...
-999  999  -999 	8.86   -7.00      0.077  0      0    	0    	0      0     0     0      0 ...
   0    0     0 ;
10      23     0  	0  	    0.015 	212  	 0.0    0  	    0  	    0      0     0     0    999 ...
-999  999  -999 	7.77   -7.86      0.000  0      0    	0    	0      0     0     0      0 ...
   0    0     0 ;
];


%pss models
% column 1 type 1for speed input
% column 2 generator number
% column 3 Gpss pss gain
% column 4 Tw
% column 5 Tn1
% column 6 Td1
% column 7 Tn2
% column 8 Td2
% column 9 ymax
% column 10 ymin
% columns 11 to 12 define a deltapomega filter if one is fitted
% column 11 Twd
% column 12 Tnf
% column 13 Tdf
%% column 14 nnf
% column 15 ndf
% column 16 Gp
pss_con = [...
   1   1  20  10  0.1 .05 0.1 0.05 0.2 -0.05 0  0  0  0  0 0;
   1   2  20  10  0.1 .05 0.1 0.05 0.2 -0.05 0  0  0  0  0 0;
   1   3  20  10  0.1 .05 0.1 0.05 0.2 -0.05 0  0  0  0  0 0;
   1   4  20  10  0.1 .05 0.1 0.05 0.2 -0.05 0  0  0  0  0 0;
   1   5  20  10  0.1 .05 0.1 0.05 0.2 -0.05 0  0  0  0  0 0;
   1   6  20  10  0.1 .05 0.1 0.05 0.2 -0.05 0  0  0  0  0 0;
   1   23  20  10  0.1 .05 0.1 0.05 0.2 -0.05 0  0  0  0 0 0;
];


gsib_idx = []; geib_idx = [];
% no nonlinear loads
load_con = [];


tgt_con = []; hgt_con = [];
uel_con = [];
oel_con = [];
svc_con = [];tcsc_con = [];upfc_con = [];
lmod_con = [];
rlmod_con = [];
ind_con = [];